Circuit: * C:\users\leonid\Desktop\university\year3\DigitalCircuitry\lab1\LTspice\BCD_2_BIN_test.asc

WARNING: Node X1:X1:X1:X1:NC_01 is floating.
WARNING: Node X1:X1:X1:X1:NC_02 is floating.
WARNING: Node X1:X1:X1:X2:NC_01 is floating.
WARNING: Node X1:X1:X1:X2:NC_02 is floating.
WARNING: Node X1:X1:X1:X3:NC_01 is floating.
WARNING: Node X1:X1:X1:X3:NC_02 is floating.
WARNING: Node X1:X1:X1:X4:NC_01 is floating.
WARNING: Node X1:X1:X1:X4:NC_02 is floating.
WARNING: Node X1:X1:X1:X5:NC_01 is floating.
WARNING: Node X1:X1:X1:X5:NC_02 is floating.
WARNING: Node X1:X1:X1:X6:NC_01 is floating.
WARNING: Node X1:X1:X1:X6:NC_02 is floating.
WARNING: Node X1:X1:X1:X7:NC_01 is floating.
WARNING: Node X1:X1:X1:X7:NC_02 is floating.
WARNING: Node X1:X1:X1:X8:NC_01 is floating.
WARNING: Node X1:X1:X1:X8:NC_02 is floating.
WARNING: Node X1:X1:X1:X9:NC_01 is floating.
WARNING: Node X1:X1:X1:X9:NC_02 is floating.
WARNING: Node X1:X1:X2:X1:NC_01 is floating.
WARNING: Node X1:X1:X2:X1:NC_02 is floating.
WARNING: Node X1:X1:X2:X2:NC_01 is floating.
WARNING: Node X1:X1:X2:X2:NC_02 is floating.
WARNING: Node X1:X1:X2:X3:NC_01 is floating.
WARNING: Node X1:X1:X2:X3:NC_02 is floating.
WARNING: Node X1:X1:X2:X4:NC_01 is floating.
WARNING: Node X1:X1:X2:X4:NC_02 is floating.
WARNING: Node X1:X1:X2:X5:NC_01 is floating.
WARNING: Node X1:X1:X2:X5:NC_02 is floating.
WARNING: Node X1:X1:X2:X6:NC_01 is floating.
WARNING: Node X1:X1:X2:X6:NC_02 is floating.
WARNING: Node X1:X1:X2:X7:NC_01 is floating.
WARNING: Node X1:X1:X2:X7:NC_02 is floating.
WARNING: Node X1:X1:X2:X8:NC_01 is floating.
WARNING: Node X1:X1:X2:X8:NC_02 is floating.
WARNING: Node X1:X1:X2:X9:NC_01 is floating.
WARNING: Node X1:X1:X2:X9:NC_02 is floating.
WARNING: Node X1:X1:X3:X1:NC_01 is floating.
WARNING: Node X1:X1:X3:X1:NC_02 is floating.
WARNING: Node X1:X1:X3:X2:NC_01 is floating.
WARNING: Node X1:X1:X3:X2:NC_02 is floating.
WARNING: Node X1:X1:X3:X3:NC_01 is floating.
WARNING: Node X1:X1:X3:X3:NC_02 is floating.
WARNING: Node X1:X1:X3:X4:NC_01 is floating.
WARNING: Node X1:X1:X3:X4:NC_02 is floating.
WARNING: Node X1:X1:X3:X5:NC_01 is floating.
WARNING: Node X1:X1:X3:X5:NC_02 is floating.
WARNING: Node X1:X1:X3:X6:NC_01 is floating.
WARNING: Node X1:X1:X3:X6:NC_02 is floating.
WARNING: Node X1:X1:X3:X7:NC_01 is floating.
WARNING: Node X1:X1:X3:X7:NC_02 is floating.
WARNING: Node X1:X1:X3:X8:NC_01 is floating.
WARNING: Node X1:X1:X3:X8:NC_02 is floating.
WARNING: Node X1:X1:X3:X9:NC_01 is floating.
WARNING: Node X1:X1:X3:X9:NC_02 is floating.
WARNING: Node X1:X1:X4:X1:NC_01 is floating.
WARNING: Node X1:X1:X4:X1:NC_02 is floating.
WARNING: Node X1:X1:X4:X2:NC_01 is floating.
WARNING: Node X1:X1:X4:X2:NC_02 is floating.
WARNING: Node X1:X1:X4:X3:NC_01 is floating.
WARNING: Node X1:X1:X4:X3:NC_02 is floating.
WARNING: Node X1:X1:X4:X4:NC_01 is floating.
WARNING: Node X1:X1:X4:X4:NC_02 is floating.
WARNING: Node X1:X1:X4:X5:NC_01 is floating.
WARNING: Node X1:X1:X4:X5:NC_02 is floating.
WARNING: Node X1:X1:X4:X6:NC_01 is floating.
WARNING: Node X1:X1:X4:X6:NC_02 is floating.
WARNING: Node X1:X1:X4:X7:NC_01 is floating.
WARNING: Node X1:X1:X4:X7:NC_02 is floating.
WARNING: Node X1:X1:X4:X8:NC_01 is floating.
WARNING: Node X1:X1:X4:X8:NC_02 is floating.
WARNING: Node X1:X1:X4:X9:NC_01 is floating.
WARNING: Node X1:X1:X4:X9:NC_02 is floating.
WARNING: Node X1:X1:X5:NC_01 is floating.
WARNING: Node X1:X1:X5:NC_02 is floating.
WARNING: Node X1:X2:X1:X1:NC_01 is floating.
WARNING: Node X1:X2:X1:X1:NC_02 is floating.
WARNING: Node X1:X2:X1:X2:NC_01 is floating.
WARNING: Node X1:X2:X1:X2:NC_02 is floating.
WARNING: Node X1:X2:X1:X3:NC_01 is floating.
WARNING: Node X1:X2:X1:X3:NC_02 is floating.
WARNING: Node X1:X2:X1:X4:NC_01 is floating.
WARNING: Node X1:X2:X1:X4:NC_02 is floating.
WARNING: Node X1:X2:X1:X5:NC_01 is floating.
WARNING: Node X1:X2:X1:X5:NC_02 is floating.
WARNING: Node X1:X2:X1:X6:NC_01 is floating.
WARNING: Node X1:X2:X1:X6:NC_02 is floating.
WARNING: Node X1:X2:X1:X7:NC_01 is floating.
WARNING: Node X1:X2:X1:X7:NC_02 is floating.
WARNING: Node X1:X2:X1:X8:NC_01 is floating.
WARNING: Node X1:X2:X1:X8:NC_02 is floating.
WARNING: Node X1:X2:X1:X9:NC_01 is floating.
WARNING: Node X1:X2:X1:X9:NC_02 is floating.
WARNING: Node X1:X2:X2:X1:NC_01 is floating.
WARNING: Node X1:X2:X2:X1:NC_02 is floating.
WARNING: Node X1:X2:X2:X2:NC_01 is floating.
WARNING: Node X1:X2:X2:X2:NC_02 is floating.
WARNING: Node X1:X2:X2:X3:NC_01 is floating.
WARNING: Node X1:X2:X2:X3:NC_02 is floating.
WARNING: Node X1:X2:X2:X4:NC_01 is floating.
WARNING: Node X1:X2:X2:X4:NC_02 is floating.
WARNING: Node X1:X2:X2:X5:NC_01 is floating.
WARNING: Node X1:X2:X2:X5:NC_02 is floating.
WARNING: Node X1:X2:X2:X6:NC_01 is floating.
WARNING: Node X1:X2:X2:X6:NC_02 is floating.
WARNING: Node X1:X2:X2:X7:NC_01 is floating.
WARNING: Node X1:X2:X2:X7:NC_02 is floating.
WARNING: Node X1:X2:X2:X8:NC_01 is floating.
WARNING: Node X1:X2:X2:X8:NC_02 is floating.
WARNING: Node X1:X2:X2:X9:NC_01 is floating.
WARNING: Node X1:X2:X2:X9:NC_02 is floating.
WARNING: Node X1:X2:X3:X1:NC_01 is floating.
WARNING: Node X1:X2:X3:X1:NC_02 is floating.
WARNING: Node X1:X2:X3:X2:NC_01 is floating.
WARNING: Node X1:X2:X3:X2:NC_02 is floating.
WARNING: Node X1:X2:X3:X3:NC_01 is floating.
WARNING: Node X1:X2:X3:X3:NC_02 is floating.
WARNING: Node X1:X2:X3:X4:NC_01 is floating.
WARNING: Node X1:X2:X3:X4:NC_02 is floating.
WARNING: Node X1:X2:X3:X5:NC_01 is floating.
WARNING: Node X1:X2:X3:X5:NC_02 is floating.
WARNING: Node X1:X2:X3:X6:NC_01 is floating.
WARNING: Node X1:X2:X3:X6:NC_02 is floating.
WARNING: Node X1:X2:X3:X7:NC_01 is floating.
WARNING: Node X1:X2:X3:X7:NC_02 is floating.
WARNING: Node X1:X2:X3:X8:NC_01 is floating.
WARNING: Node X1:X2:X3:X8:NC_02 is floating.
WARNING: Node X1:X2:X3:X9:NC_01 is floating.
WARNING: Node X1:X2:X3:X9:NC_02 is floating.
WARNING: Node X1:X2:X4:X1:NC_01 is floating.
WARNING: Node X1:X2:X4:X1:NC_02 is floating.
WARNING: Node X1:X2:X4:X2:NC_01 is floating.
WARNING: Node X1:X2:X4:X2:NC_02 is floating.
WARNING: Node X1:X2:X4:X3:NC_01 is floating.
WARNING: Node X1:X2:X4:X3:NC_02 is floating.
WARNING: Node X1:X2:X4:X4:NC_01 is floating.
WARNING: Node X1:X2:X4:X4:NC_02 is floating.
WARNING: Node X1:X2:X4:X5:NC_01 is floating.
WARNING: Node X1:X2:X4:X5:NC_02 is floating.
WARNING: Node X1:X2:X4:X6:NC_01 is floating.
WARNING: Node X1:X2:X4:X6:NC_02 is floating.
WARNING: Node X1:X2:X4:X7:NC_01 is floating.
WARNING: Node X1:X2:X4:X7:NC_02 is floating.
WARNING: Node X1:X2:X4:X8:NC_01 is floating.
WARNING: Node X1:X2:X4:X8:NC_02 is floating.
WARNING: Node X1:X2:X4:X9:NC_01 is floating.
WARNING: Node X1:X2:X4:X9:NC_02 is floating.
WARNING: Node X1:X2:X5:NC_01 is floating.
WARNING: Node X1:X2:X5:NC_02 is floating.
WARNING: Node X1:X3:X1:X1:NC_01 is floating.
WARNING: Node X1:X3:X1:X1:NC_02 is floating.
WARNING: Node X1:X3:X1:X2:NC_01 is floating.
WARNING: Node X1:X3:X1:X2:NC_02 is floating.
WARNING: Node X1:X3:X1:X3:NC_01 is floating.
WARNING: Node X1:X3:X1:X3:NC_02 is floating.
WARNING: Node X1:X3:X1:X4:NC_01 is floating.
WARNING: Node X1:X3:X1:X4:NC_02 is floating.
WARNING: Node X1:X3:X1:X5:NC_01 is floating.
WARNING: Node X1:X3:X1:X5:NC_02 is floating.
WARNING: Node X1:X3:X1:X6:NC_01 is floating.
WARNING: Node X1:X3:X1:X6:NC_02 is floating.
WARNING: Node X1:X3:X1:X7:NC_01 is floating.
WARNING: Node X1:X3:X1:X7:NC_02 is floating.
WARNING: Node X1:X3:X1:X8:NC_01 is floating.
WARNING: Node X1:X3:X1:X8:NC_02 is floating.
WARNING: Node X1:X3:X1:X9:NC_01 is floating.
WARNING: Node X1:X3:X1:X9:NC_02 is floating.
WARNING: Node X1:X3:X2:X1:NC_01 is floating.
WARNING: Node X1:X3:X2:X1:NC_02 is floating.
WARNING: Node X1:X3:X2:X2:NC_01 is floating.
WARNING: Node X1:X3:X2:X2:NC_02 is floating.
WARNING: Node X1:X3:X2:X3:NC_01 is floating.
WARNING: Node X1:X3:X2:X3:NC_02 is floating.
WARNING: Node X1:X3:X2:X4:NC_01 is floating.
WARNING: Node X1:X3:X2:X4:NC_02 is floating.
WARNING: Node X1:X3:X2:X5:NC_01 is floating.
WARNING: Node X1:X3:X2:X5:NC_02 is floating.
WARNING: Node X1:X3:X2:X6:NC_01 is floating.
WARNING: Node X1:X3:X2:X6:NC_02 is floating.
WARNING: Node X1:X3:X2:X7:NC_01 is floating.
WARNING: Node X1:X3:X2:X7:NC_02 is floating.
WARNING: Node X1:X3:X2:X8:NC_01 is floating.
WARNING: Node X1:X3:X2:X8:NC_02 is floating.
WARNING: Node X1:X3:X2:X9:NC_01 is floating.
WARNING: Node X1:X3:X2:X9:NC_02 is floating.
WARNING: Node X1:X3:X3:X1:NC_01 is floating.
WARNING: Node X1:X3:X3:X1:NC_02 is floating.
WARNING: Node X1:X3:X3:X2:NC_01 is floating.
WARNING: Node X1:X3:X3:X2:NC_02 is floating.
WARNING: Node X1:X3:X3:X3:NC_01 is floating.
WARNING: Node X1:X3:X3:X3:NC_02 is floating.
WARNING: Node X1:X3:X3:X4:NC_01 is floating.
WARNING: Node X1:X3:X3:X4:NC_02 is floating.
WARNING: Node X1:X3:X3:X5:NC_01 is floating.
WARNING: Node X1:X3:X3:X5:NC_02 is floating.
WARNING: Node X1:X3:X3:X6:NC_01 is floating.
WARNING: Node X1:X3:X3:X6:NC_02 is floating.
WARNING: Node X1:X3:X3:X7:NC_01 is floating.
WARNING: Node X1:X3:X3:X7:NC_02 is floating.
WARNING: Node X1:X3:X3:X8:NC_01 is floating.
WARNING: Node X1:X3:X3:X8:NC_02 is floating.
WARNING: Node X1:X3:X3:X9:NC_01 is floating.
WARNING: Node X1:X3:X3:X9:NC_02 is floating.
WARNING: Node X1:X3:X4:X1:NC_01 is floating.
WARNING: Node X1:X3:X4:X1:NC_02 is floating.
WARNING: Node X1:X3:X4:X2:NC_01 is floating.
WARNING: Node X1:X3:X4:X2:NC_02 is floating.
WARNING: Node X1:X3:X4:X3:NC_01 is floating.
WARNING: Node X1:X3:X4:X3:NC_02 is floating.
WARNING: Node X1:X3:X4:X4:NC_01 is floating.
WARNING: Node X1:X3:X4:X4:NC_02 is floating.
WARNING: Node X1:X3:X4:X5:NC_01 is floating.
WARNING: Node X1:X3:X4:X5:NC_02 is floating.
WARNING: Node X1:X3:X4:X6:NC_01 is floating.
WARNING: Node X1:X3:X4:X6:NC_02 is floating.
WARNING: Node X1:X3:X4:X7:NC_01 is floating.
WARNING: Node X1:X3:X4:X7:NC_02 is floating.
WARNING: Node X1:X3:X4:X8:NC_01 is floating.
WARNING: Node X1:X3:X4:X8:NC_02 is floating.
WARNING: Node X1:X3:X4:X9:NC_01 is floating.
WARNING: Node X1:X3:X4:X9:NC_02 is floating.
WARNING: Node X1:X3:X5:NC_01 is floating.
WARNING: Node X1:X3:X5:NC_02 is floating.
WARNING: Node X1:X4:X1:X1:NC_01 is floating.
WARNING: Node X1:X4:X1:X1:NC_02 is floating.
WARNING: Node X1:X4:X1:X2:NC_01 is floating.
WARNING: Node X1:X4:X1:X2:NC_02 is floating.
WARNING: Node X1:X4:X1:X3:NC_01 is floating.
WARNING: Node X1:X4:X1:X3:NC_02 is floating.
WARNING: Node X1:X4:X1:X4:NC_01 is floating.
WARNING: Node X1:X4:X1:X4:NC_02 is floating.
WARNING: Node X1:X4:X1:X5:NC_01 is floating.
WARNING: Node X1:X4:X1:X5:NC_02 is floating.
WARNING: Node X1:X4:X1:X6:NC_01 is floating.
WARNING: Node X1:X4:X1:X6:NC_02 is floating.
WARNING: Node X1:X4:X1:X7:NC_01 is floating.
WARNING: Node X1:X4:X1:X7:NC_02 is floating.
WARNING: Node X1:X4:X1:X8:NC_01 is floating.
WARNING: Node X1:X4:X1:X8:NC_02 is floating.
WARNING: Node X1:X4:X1:X9:NC_01 is floating.
WARNING: Node X1:X4:X1:X9:NC_02 is floating.
WARNING: Node X1:X4:X2:X1:NC_01 is floating.
WARNING: Node X1:X4:X2:X1:NC_02 is floating.
WARNING: Node X1:X4:X2:X2:NC_01 is floating.
WARNING: Node X1:X4:X2:X2:NC_02 is floating.
WARNING: Node X1:X4:X2:X3:NC_01 is floating.
WARNING: Node X1:X4:X2:X3:NC_02 is floating.
WARNING: Node X1:X4:X2:X4:NC_01 is floating.
WARNING: Node X1:X4:X2:X4:NC_02 is floating.
WARNING: Node X1:X4:X2:X5:NC_01 is floating.
WARNING: Node X1:X4:X2:X5:NC_02 is floating.
WARNING: Node X1:X4:X2:X6:NC_01 is floating.
WARNING: Node X1:X4:X2:X6:NC_02 is floating.
WARNING: Node X1:X4:X2:X7:NC_01 is floating.
WARNING: Node X1:X4:X2:X7:NC_02 is floating.
WARNING: Node X1:X4:X2:X8:NC_01 is floating.
WARNING: Node X1:X4:X2:X8:NC_02 is floating.
WARNING: Node X1:X4:X2:X9:NC_01 is floating.
WARNING: Node X1:X4:X2:X9:NC_02 is floating.
WARNING: Node X1:X4:X3:X1:NC_01 is floating.
WARNING: Node X1:X4:X3:X1:NC_02 is floating.
WARNING: Node X1:X4:X3:X2:NC_01 is floating.
WARNING: Node X1:X4:X3:X2:NC_02 is floating.
WARNING: Node X1:X4:X3:X3:NC_01 is floating.
WARNING: Node X1:X4:X3:X3:NC_02 is floating.
WARNING: Node X1:X4:X3:X4:NC_01 is floating.
WARNING: Node X1:X4:X3:X4:NC_02 is floating.
WARNING: Node X1:X4:X3:X5:NC_01 is floating.
WARNING: Node X1:X4:X3:X5:NC_02 is floating.
WARNING: Node X1:X4:X3:X6:NC_01 is floating.
WARNING: Node X1:X4:X3:X6:NC_02 is floating.
WARNING: Node X1:X4:X3:X7:NC_01 is floating.
WARNING: Node X1:X4:X3:X7:NC_02 is floating.
WARNING: Node X1:X4:X3:X8:NC_01 is floating.
WARNING: Node X1:X4:X3:X8:NC_02 is floating.
WARNING: Node X1:X4:X3:X9:NC_01 is floating.
WARNING: Node X1:X4:X3:X9:NC_02 is floating.
WARNING: Node X1:X4:X4:X1:NC_01 is floating.
WARNING: Node X1:X4:X4:X1:NC_02 is floating.
WARNING: Node X1:X4:X4:X2:NC_01 is floating.
WARNING: Node X1:X4:X4:X2:NC_02 is floating.
WARNING: Node X1:X4:X4:X3:NC_01 is floating.
WARNING: Node X1:X4:X4:X3:NC_02 is floating.
WARNING: Node X1:X4:X4:X4:NC_01 is floating.
WARNING: Node X1:X4:X4:X4:NC_02 is floating.
WARNING: Node X1:X4:X4:X5:NC_01 is floating.
WARNING: Node X1:X4:X4:X5:NC_02 is floating.
WARNING: Node X1:X4:X4:X6:NC_01 is floating.
WARNING: Node X1:X4:X4:X6:NC_02 is floating.
WARNING: Node X1:X4:X4:X7:NC_01 is floating.
WARNING: Node X1:X4:X4:X7:NC_02 is floating.
WARNING: Node X1:X4:X4:X8:NC_01 is floating.
WARNING: Node X1:X4:X4:X8:NC_02 is floating.
WARNING: Node X1:X4:X4:X9:NC_01 is floating.
WARNING: Node X1:X4:X4:X9:NC_02 is floating.
WARNING: Node X1:X4:X5:NC_01 is floating.
WARNING: Node X1:X4:X5:NC_02 is floating.

WARNING: Less than two connections to node x1:x1:x1:x1:nc_01.  This node is used by m:x1:x1:x1:x1:3.
WARNING: Less than two connections to node x1:x1:x1:x1:nc_02.  This node is used by m:x1:x1:x1:x1:4.
WARNING: Less than two connections to node x1:x1:x1:x2:nc_01.  This node is used by m:x1:x1:x1:x2:3.
WARNING: Less than two connections to node x1:x1:x1:x2:nc_02.  This node is used by m:x1:x1:x1:x2:4.
WARNING: Less than two connections to node x1:x1:x1:x3:nc_01.  This node is used by m:x1:x1:x1:x3:3.
WARNING: Less than two connections to node x1:x1:x1:x3:nc_02.  This node is used by m:x1:x1:x1:x3:4.
WARNING: Less than two connections to node x1:x1:x1:x4:nc_01.  This node is used by m:x1:x1:x1:x4:3.
WARNING: Less than two connections to node x1:x1:x1:x4:nc_02.  This node is used by m:x1:x1:x1:x4:4.
WARNING: Less than two connections to node x1:x1:x1:x5:nc_01.  This node is used by m:x1:x1:x1:x5:3.
WARNING: Less than two connections to node x1:x1:x1:x5:nc_02.  This node is used by m:x1:x1:x1:x5:4.
WARNING: Less than two connections to node x1:x1:x1:x6:nc_01.  This node is used by m:x1:x1:x1:x6:3.
WARNING: Less than two connections to node x1:x1:x1:x6:nc_02.  This node is used by m:x1:x1:x1:x6:4.
WARNING: Less than two connections to node x1:x1:x1:x7:nc_01.  This node is used by m:x1:x1:x1:x7:3.
WARNING: Less than two connections to node x1:x1:x1:x7:nc_02.  This node is used by m:x1:x1:x1:x7:4.
WARNING: Less than two connections to node x1:x1:x1:x8:nc_01.  This node is used by m:x1:x1:x1:x8:3.
WARNING: Less than two connections to node x1:x1:x1:x8:nc_02.  This node is used by m:x1:x1:x1:x8:4.
WARNING: Less than two connections to node x1:x1:x1:x9:nc_01.  This node is used by m:x1:x1:x1:x9:3.
WARNING: Less than two connections to node x1:x1:x1:x9:nc_02.  This node is used by m:x1:x1:x1:x9:4.
WARNING: Less than two connections to node x1:x1:x2:x1:nc_01.  This node is used by m:x1:x1:x2:x1:3.
WARNING: Less than two connections to node x1:x1:x2:x1:nc_02.  This node is used by m:x1:x1:x2:x1:4.
WARNING: Less than two connections to node x1:x1:x2:x2:nc_01.  This node is used by m:x1:x1:x2:x2:3.
WARNING: Less than two connections to node x1:x1:x2:x2:nc_02.  This node is used by m:x1:x1:x2:x2:4.
WARNING: Less than two connections to node x1:x1:x2:x3:nc_01.  This node is used by m:x1:x1:x2:x3:3.
WARNING: Less than two connections to node x1:x1:x2:x3:nc_02.  This node is used by m:x1:x1:x2:x3:4.
WARNING: Less than two connections to node x1:x1:x2:x4:nc_01.  This node is used by m:x1:x1:x2:x4:3.
WARNING: Less than two connections to node x1:x1:x2:x4:nc_02.  This node is used by m:x1:x1:x2:x4:4.
WARNING: Less than two connections to node x1:x1:x2:x5:nc_01.  This node is used by m:x1:x1:x2:x5:3.
WARNING: Less than two connections to node x1:x1:x2:x5:nc_02.  This node is used by m:x1:x1:x2:x5:4.
WARNING: Less than two connections to node x1:x1:x2:x6:nc_01.  This node is used by m:x1:x1:x2:x6:3.
WARNING: Less than two connections to node x1:x1:x2:x6:nc_02.  This node is used by m:x1:x1:x2:x6:4.
WARNING: Less than two connections to node x1:x1:x2:x7:nc_01.  This node is used by m:x1:x1:x2:x7:3.
WARNING: Less than two connections to node x1:x1:x2:x7:nc_02.  This node is used by m:x1:x1:x2:x7:4.
WARNING: Less than two connections to node x1:x1:x2:x8:nc_01.  This node is used by m:x1:x1:x2:x8:3.
WARNING: Less than two connections to node x1:x1:x2:x8:nc_02.  This node is used by m:x1:x1:x2:x8:4.
WARNING: Less than two connections to node x1:x1:x2:x9:nc_01.  This node is used by m:x1:x1:x2:x9:3.
WARNING: Less than two connections to node x1:x1:x2:x9:nc_02.  This node is used by m:x1:x1:x2:x9:4.
WARNING: Less than two connections to node x1:x1:x3:x1:nc_01.  This node is used by m:x1:x1:x3:x1:3.
WARNING: Less than two connections to node x1:x1:x3:x1:nc_02.  This node is used by m:x1:x1:x3:x1:4.
WARNING: Less than two connections to node x1:x1:x3:x2:nc_01.  This node is used by m:x1:x1:x3:x2:3.
WARNING: Less than two connections to node x1:x1:x3:x2:nc_02.  This node is used by m:x1:x1:x3:x2:4.
WARNING: Less than two connections to node x1:x1:x3:x3:nc_01.  This node is used by m:x1:x1:x3:x3:3.
WARNING: Less than two connections to node x1:x1:x3:x3:nc_02.  This node is used by m:x1:x1:x3:x3:4.
WARNING: Less than two connections to node x1:x1:x3:x4:nc_01.  This node is used by m:x1:x1:x3:x4:3.
WARNING: Less than two connections to node x1:x1:x3:x4:nc_02.  This node is used by m:x1:x1:x3:x4:4.
WARNING: Less than two connections to node x1:x1:x3:x5:nc_01.  This node is used by m:x1:x1:x3:x5:3.
WARNING: Less than two connections to node x1:x1:x3:x5:nc_02.  This node is used by m:x1:x1:x3:x5:4.
WARNING: Less than two connections to node x1:x1:x3:x6:nc_01.  This node is used by m:x1:x1:x3:x6:3.
WARNING: Less than two connections to node x1:x1:x3:x6:nc_02.  This node is used by m:x1:x1:x3:x6:4.
WARNING: Less than two connections to node x1:x1:x3:x7:nc_01.  This node is used by m:x1:x1:x3:x7:3.
WARNING: Less than two connections to node x1:x1:x3:x7:nc_02.  This node is used by m:x1:x1:x3:x7:4.
WARNING: Less than two connections to node x1:x1:x3:x8:nc_01.  This node is used by m:x1:x1:x3:x8:3.
WARNING: Less than two connections to node x1:x1:x3:x8:nc_02.  This node is used by m:x1:x1:x3:x8:4.
WARNING: Less than two connections to node x1:x1:x3:x9:nc_01.  This node is used by m:x1:x1:x3:x9:3.
WARNING: Less than two connections to node x1:x1:x3:x9:nc_02.  This node is used by m:x1:x1:x3:x9:4.
WARNING: Less than two connections to node x1:x1:x4:x1:nc_01.  This node is used by m:x1:x1:x4:x1:3.
WARNING: Less than two connections to node x1:x1:x4:x1:nc_02.  This node is used by m:x1:x1:x4:x1:4.
WARNING: Less than two connections to node x1:x1:x4:x2:nc_01.  This node is used by m:x1:x1:x4:x2:3.
WARNING: Less than two connections to node x1:x1:x4:x2:nc_02.  This node is used by m:x1:x1:x4:x2:4.
WARNING: Less than two connections to node x1:x1:x4:x3:nc_01.  This node is used by m:x1:x1:x4:x3:3.
WARNING: Less than two connections to node x1:x1:x4:x3:nc_02.  This node is used by m:x1:x1:x4:x3:4.
WARNING: Less than two connections to node x1:x1:x4:x4:nc_01.  This node is used by m:x1:x1:x4:x4:3.
WARNING: Less than two connections to node x1:x1:x4:x4:nc_02.  This node is used by m:x1:x1:x4:x4:4.
WARNING: Less than two connections to node x1:x1:x4:x5:nc_01.  This node is used by m:x1:x1:x4:x5:3.
WARNING: Less than two connections to node x1:x1:x4:x5:nc_02.  This node is used by m:x1:x1:x4:x5:4.
WARNING: Less than two connections to node x1:x1:x4:x6:nc_01.  This node is used by m:x1:x1:x4:x6:3.
WARNING: Less than two connections to node x1:x1:x4:x6:nc_02.  This node is used by m:x1:x1:x4:x6:4.
WARNING: Less than two connections to node x1:x1:x4:x7:nc_01.  This node is used by m:x1:x1:x4:x7:3.
WARNING: Less than two connections to node x1:x1:x4:x7:nc_02.  This node is used by m:x1:x1:x4:x7:4.
WARNING: Less than two connections to node x1:x1:x4:x8:nc_01.  This node is used by m:x1:x1:x4:x8:3.
WARNING: Less than two connections to node x1:x1:x4:x8:nc_02.  This node is used by m:x1:x1:x4:x8:4.
WARNING: Less than two connections to node x1:x1:x4:x9:nc_01.  This node is used by m:x1:x1:x4:x9:3.
WARNING: Less than two connections to node x1:x1:x4:x9:nc_02.  This node is used by m:x1:x1:x4:x9:4.
WARNING: Less than two connections to node x1:x1:x5:nc_01.  This node is used by m:x1:x1:x5:3.
WARNING: Less than two connections to node x1:x1:x5:nc_02.  This node is used by m:x1:x1:x5:4.
WARNING: Less than two connections to node x1:x2:x1:x1:nc_01.  This node is used by m:x1:x2:x1:x1:3.
WARNING: Less than two connections to node x1:x2:x1:x1:nc_02.  This node is used by m:x1:x2:x1:x1:4.
WARNING: Less than two connections to node x1:x2:x1:x2:nc_01.  This node is used by m:x1:x2:x1:x2:3.
WARNING: Less than two connections to node x1:x2:x1:x2:nc_02.  This node is used by m:x1:x2:x1:x2:4.
WARNING: Less than two connections to node x1:x2:x1:x3:nc_01.  This node is used by m:x1:x2:x1:x3:3.
WARNING: Less than two connections to node x1:x2:x1:x3:nc_02.  This node is used by m:x1:x2:x1:x3:4.
WARNING: Less than two connections to node x1:x2:x1:x4:nc_01.  This node is used by m:x1:x2:x1:x4:3.
WARNING: Less than two connections to node x1:x2:x1:x4:nc_02.  This node is used by m:x1:x2:x1:x4:4.
WARNING: Less than two connections to node x1:x2:x1:x5:nc_01.  This node is used by m:x1:x2:x1:x5:3.
WARNING: Less than two connections to node x1:x2:x1:x5:nc_02.  This node is used by m:x1:x2:x1:x5:4.
WARNING: Less than two connections to node x1:x2:x1:x6:nc_01.  This node is used by m:x1:x2:x1:x6:3.
WARNING: Less than two connections to node x1:x2:x1:x6:nc_02.  This node is used by m:x1:x2:x1:x6:4.
WARNING: Less than two connections to node x1:x2:x1:x7:nc_01.  This node is used by m:x1:x2:x1:x7:3.
WARNING: Less than two connections to node x1:x2:x1:x7:nc_02.  This node is used by m:x1:x2:x1:x7:4.
WARNING: Less than two connections to node x1:x2:x1:x8:nc_01.  This node is used by m:x1:x2:x1:x8:3.
WARNING: Less than two connections to node x1:x2:x1:x8:nc_02.  This node is used by m:x1:x2:x1:x8:4.
WARNING: Less than two connections to node x1:x2:x1:x9:nc_01.  This node is used by m:x1:x2:x1:x9:3.
WARNING: Less than two connections to node x1:x2:x1:x9:nc_02.  This node is used by m:x1:x2:x1:x9:4.
WARNING: Less than two connections to node x1:x2:x2:x1:nc_01.  This node is used by m:x1:x2:x2:x1:3.
WARNING: Less than two connections to node x1:x2:x2:x1:nc_02.  This node is used by m:x1:x2:x2:x1:4.
WARNING: Less than two connections to node x1:x2:x2:x2:nc_01.  This node is used by m:x1:x2:x2:x2:3.
WARNING: Less than two connections to node x1:x2:x2:x2:nc_02.  This node is used by m:x1:x2:x2:x2:4.
WARNING: Less than two connections to node x1:x2:x2:x3:nc_01.  This node is used by m:x1:x2:x2:x3:3.
WARNING: Less than two connections to node x1:x2:x2:x3:nc_02.  This node is used by m:x1:x2:x2:x3:4.
WARNING: Less than two connections to node x1:x2:x2:x4:nc_01.  This node is used by m:x1:x2:x2:x4:3.
WARNING: Less than two connections to node x1:x2:x2:x4:nc_02.  This node is used by m:x1:x2:x2:x4:4.
WARNING: Less than two connections to node x1:x2:x2:x5:nc_01.  This node is used by m:x1:x2:x2:x5:3.
WARNING: Less than two connections to node x1:x2:x2:x5:nc_02.  This node is used by m:x1:x2:x2:x5:4.
WARNING: Less than two connections to node x1:x2:x2:x6:nc_01.  This node is used by m:x1:x2:x2:x6:3.
WARNING: Less than two connections to node x1:x2:x2:x6:nc_02.  This node is used by m:x1:x2:x2:x6:4.
WARNING: Less than two connections to node x1:x2:x2:x7:nc_01.  This node is used by m:x1:x2:x2:x7:3.
WARNING: Less than two connections to node x1:x2:x2:x7:nc_02.  This node is used by m:x1:x2:x2:x7:4.
WARNING: Less than two connections to node x1:x2:x2:x8:nc_01.  This node is used by m:x1:x2:x2:x8:3.
WARNING: Less than two connections to node x1:x2:x2:x8:nc_02.  This node is used by m:x1:x2:x2:x8:4.
WARNING: Less than two connections to node x1:x2:x2:x9:nc_01.  This node is used by m:x1:x2:x2:x9:3.
WARNING: Less than two connections to node x1:x2:x2:x9:nc_02.  This node is used by m:x1:x2:x2:x9:4.
WARNING: Less than two connections to node x1:x2:x3:x1:nc_01.  This node is used by m:x1:x2:x3:x1:3.
WARNING: Less than two connections to node x1:x2:x3:x1:nc_02.  This node is used by m:x1:x2:x3:x1:4.
WARNING: Less than two connections to node x1:x2:x3:x2:nc_01.  This node is used by m:x1:x2:x3:x2:3.
WARNING: Less than two connections to node x1:x2:x3:x2:nc_02.  This node is used by m:x1:x2:x3:x2:4.
WARNING: Less than two connections to node x1:x2:x3:x3:nc_01.  This node is used by m:x1:x2:x3:x3:3.
WARNING: Less than two connections to node x1:x2:x3:x3:nc_02.  This node is used by m:x1:x2:x3:x3:4.
WARNING: Less than two connections to node x1:x2:x3:x4:nc_01.  This node is used by m:x1:x2:x3:x4:3.
WARNING: Less than two connections to node x1:x2:x3:x4:nc_02.  This node is used by m:x1:x2:x3:x4:4.
WARNING: Less than two connections to node x1:x2:x3:x5:nc_01.  This node is used by m:x1:x2:x3:x5:3.
WARNING: Less than two connections to node x1:x2:x3:x5:nc_02.  This node is used by m:x1:x2:x3:x5:4.
WARNING: Less than two connections to node x1:x2:x3:x6:nc_01.  This node is used by m:x1:x2:x3:x6:3.
WARNING: Less than two connections to node x1:x2:x3:x6:nc_02.  This node is used by m:x1:x2:x3:x6:4.
WARNING: Less than two connections to node x1:x2:x3:x7:nc_01.  This node is used by m:x1:x2:x3:x7:3.
WARNING: Less than two connections to node x1:x2:x3:x7:nc_02.  This node is used by m:x1:x2:x3:x7:4.
WARNING: Less than two connections to node x1:x2:x3:x8:nc_01.  This node is used by m:x1:x2:x3:x8:3.
WARNING: Less than two connections to node x1:x2:x3:x8:nc_02.  This node is used by m:x1:x2:x3:x8:4.
WARNING: Less than two connections to node x1:x2:x3:x9:nc_01.  This node is used by m:x1:x2:x3:x9:3.
WARNING: Less than two connections to node x1:x2:x3:x9:nc_02.  This node is used by m:x1:x2:x3:x9:4.
WARNING: Less than two connections to node x1:x2:x4:x1:nc_01.  This node is used by m:x1:x2:x4:x1:3.
WARNING: Less than two connections to node x1:x2:x4:x1:nc_02.  This node is used by m:x1:x2:x4:x1:4.
WARNING: Less than two connections to node x1:x2:x4:x2:nc_01.  This node is used by m:x1:x2:x4:x2:3.
WARNING: Less than two connections to node x1:x2:x4:x2:nc_02.  This node is used by m:x1:x2:x4:x2:4.
WARNING: Less than two connections to node x1:x2:x4:x3:nc_01.  This node is used by m:x1:x2:x4:x3:3.
WARNING: Less than two connections to node x1:x2:x4:x3:nc_02.  This node is used by m:x1:x2:x4:x3:4.
WARNING: Less than two connections to node x1:x2:x4:x4:nc_01.  This node is used by m:x1:x2:x4:x4:3.
WARNING: Less than two connections to node x1:x2:x4:x4:nc_02.  This node is used by m:x1:x2:x4:x4:4.
WARNING: Less than two connections to node x1:x2:x4:x5:nc_01.  This node is used by m:x1:x2:x4:x5:3.
WARNING: Less than two connections to node x1:x2:x4:x5:nc_02.  This node is used by m:x1:x2:x4:x5:4.
WARNING: Less than two connections to node x1:x2:x4:x6:nc_01.  This node is used by m:x1:x2:x4:x6:3.
WARNING: Less than two connections to node x1:x2:x4:x6:nc_02.  This node is used by m:x1:x2:x4:x6:4.
WARNING: Less than two connections to node x1:x2:x4:x7:nc_01.  This node is used by m:x1:x2:x4:x7:3.
WARNING: Less than two connections to node x1:x2:x4:x7:nc_02.  This node is used by m:x1:x2:x4:x7:4.
WARNING: Less than two connections to node x1:x2:x4:x8:nc_01.  This node is used by m:x1:x2:x4:x8:3.
WARNING: Less than two connections to node x1:x2:x4:x8:nc_02.  This node is used by m:x1:x2:x4:x8:4.
WARNING: Less than two connections to node x1:x2:x4:x9:nc_01.  This node is used by m:x1:x2:x4:x9:3.
WARNING: Less than two connections to node x1:x2:x4:x9:nc_02.  This node is used by m:x1:x2:x4:x9:4.
WARNING: Less than two connections to node x1:x2:x5:nc_01.  This node is used by m:x1:x2:x5:3.
WARNING: Less than two connections to node x1:x2:x5:nc_02.  This node is used by m:x1:x2:x5:4.
WARNING: Less than two connections to node x1:x3:x1:x1:nc_01.  This node is used by m:x1:x3:x1:x1:3.
WARNING: Less than two connections to node x1:x3:x1:x1:nc_02.  This node is used by m:x1:x3:x1:x1:4.
WARNING: Less than two connections to node x1:x3:x1:x2:nc_01.  This node is used by m:x1:x3:x1:x2:3.
WARNING: Less than two connections to node x1:x3:x1:x2:nc_02.  This node is used by m:x1:x3:x1:x2:4.
WARNING: Less than two connections to node x1:x3:x1:x3:nc_01.  This node is used by m:x1:x3:x1:x3:3.
WARNING: Less than two connections to node x1:x3:x1:x3:nc_02.  This node is used by m:x1:x3:x1:x3:4.
WARNING: Less than two connections to node x1:x3:x1:x4:nc_01.  This node is used by m:x1:x3:x1:x4:3.
WARNING: Less than two connections to node x1:x3:x1:x4:nc_02.  This node is used by m:x1:x3:x1:x4:4.
WARNING: Less than two connections to node x1:x3:x1:x5:nc_01.  This node is used by m:x1:x3:x1:x5:3.
WARNING: Less than two connections to node x1:x3:x1:x5:nc_02.  This node is used by m:x1:x3:x1:x5:4.
WARNING: Less than two connections to node x1:x3:x1:x6:nc_01.  This node is used by m:x1:x3:x1:x6:3.
WARNING: Less than two connections to node x1:x3:x1:x6:nc_02.  This node is used by m:x1:x3:x1:x6:4.
WARNING: Less than two connections to node x1:x3:x1:x7:nc_01.  This node is used by m:x1:x3:x1:x7:3.
WARNING: Less than two connections to node x1:x3:x1:x7:nc_02.  This node is used by m:x1:x3:x1:x7:4.
WARNING: Less than two connections to node x1:x3:x1:x8:nc_01.  This node is used by m:x1:x3:x1:x8:3.
WARNING: Less than two connections to node x1:x3:x1:x8:nc_02.  This node is used by m:x1:x3:x1:x8:4.
WARNING: Less than two connections to node x1:x3:x1:x9:nc_01.  This node is used by m:x1:x3:x1:x9:3.
WARNING: Less than two connections to node x1:x3:x1:x9:nc_02.  This node is used by m:x1:x3:x1:x9:4.
WARNING: Less than two connections to node x1:x3:x2:x1:nc_01.  This node is used by m:x1:x3:x2:x1:3.
WARNING: Less than two connections to node x1:x3:x2:x1:nc_02.  This node is used by m:x1:x3:x2:x1:4.
WARNING: Less than two connections to node x1:x3:x2:x2:nc_01.  This node is used by m:x1:x3:x2:x2:3.
WARNING: Less than two connections to node x1:x3:x2:x2:nc_02.  This node is used by m:x1:x3:x2:x2:4.
WARNING: Less than two connections to node x1:x3:x2:x3:nc_01.  This node is used by m:x1:x3:x2:x3:3.
WARNING: Less than two connections to node x1:x3:x2:x3:nc_02.  This node is used by m:x1:x3:x2:x3:4.
WARNING: Less than two connections to node x1:x3:x2:x4:nc_01.  This node is used by m:x1:x3:x2:x4:3.
WARNING: Less than two connections to node x1:x3:x2:x4:nc_02.  This node is used by m:x1:x3:x2:x4:4.
WARNING: Less than two connections to node x1:x3:x2:x5:nc_01.  This node is used by m:x1:x3:x2:x5:3.
WARNING: Less than two connections to node x1:x3:x2:x5:nc_02.  This node is used by m:x1:x3:x2:x5:4.
WARNING: Less than two connections to node x1:x3:x2:x6:nc_01.  This node is used by m:x1:x3:x2:x6:3.
WARNING: Less than two connections to node x1:x3:x2:x6:nc_02.  This node is used by m:x1:x3:x2:x6:4.
WARNING: Less than two connections to node x1:x3:x2:x7:nc_01.  This node is used by m:x1:x3:x2:x7:3.
WARNING: Less than two connections to node x1:x3:x2:x7:nc_02.  This node is used by m:x1:x3:x2:x7:4.
WARNING: Less than two connections to node x1:x3:x2:x8:nc_01.  This node is used by m:x1:x3:x2:x8:3.
WARNING: Less than two connections to node x1:x3:x2:x8:nc_02.  This node is used by m:x1:x3:x2:x8:4.
WARNING: Less than two connections to node x1:x3:x2:x9:nc_01.  This node is used by m:x1:x3:x2:x9:3.
WARNING: Less than two connections to node x1:x3:x2:x9:nc_02.  This node is used by m:x1:x3:x2:x9:4.
WARNING: Less than two connections to node x1:x3:x3:x1:nc_01.  This node is used by m:x1:x3:x3:x1:3.
WARNING: Less than two connections to node x1:x3:x3:x1:nc_02.  This node is used by m:x1:x3:x3:x1:4.
WARNING: Less than two connections to node x1:x3:x3:x2:nc_01.  This node is used by m:x1:x3:x3:x2:3.
WARNING: Less than two connections to node x1:x3:x3:x2:nc_02.  This node is used by m:x1:x3:x3:x2:4.
WARNING: Less than two connections to node x1:x3:x3:x3:nc_01.  This node is used by m:x1:x3:x3:x3:3.
WARNING: Less than two connections to node x1:x3:x3:x3:nc_02.  This node is used by m:x1:x3:x3:x3:4.
WARNING: Less than two connections to node x1:x3:x3:x4:nc_01.  This node is used by m:x1:x3:x3:x4:3.
WARNING: Less than two connections to node x1:x3:x3:x4:nc_02.  This node is used by m:x1:x3:x3:x4:4.
WARNING: Less than two connections to node x1:x3:x3:x5:nc_01.  This node is used by m:x1:x3:x3:x5:3.
WARNING: Less than two connections to node x1:x3:x3:x5:nc_02.  This node is used by m:x1:x3:x3:x5:4.
WARNING: Less than two connections to node x1:x3:x3:x6:nc_01.  This node is used by m:x1:x3:x3:x6:3.
WARNING: Less than two connections to node x1:x3:x3:x6:nc_02.  This node is used by m:x1:x3:x3:x6:4.
WARNING: Less than two connections to node x1:x3:x3:x7:nc_01.  This node is used by m:x1:x3:x3:x7:3.
WARNING: Less than two connections to node x1:x3:x3:x7:nc_02.  This node is used by m:x1:x3:x3:x7:4.
WARNING: Less than two connections to node x1:x3:x3:x8:nc_01.  This node is used by m:x1:x3:x3:x8:3.
WARNING: Less than two connections to node x1:x3:x3:x8:nc_02.  This node is used by m:x1:x3:x3:x8:4.
WARNING: Less than two connections to node x1:x3:x3:x9:nc_01.  This node is used by m:x1:x3:x3:x9:3.
WARNING: Less than two connections to node x1:x3:x3:x9:nc_02.  This node is used by m:x1:x3:x3:x9:4.
WARNING: Less than two connections to node x1:x3:x4:x1:nc_01.  This node is used by m:x1:x3:x4:x1:3.
WARNING: Less than two connections to node x1:x3:x4:x1:nc_02.  This node is used by m:x1:x3:x4:x1:4.
WARNING: Less than two connections to node x1:x3:x4:x2:nc_01.  This node is used by m:x1:x3:x4:x2:3.
WARNING: Less than two connections to node x1:x3:x4:x2:nc_02.  This node is used by m:x1:x3:x4:x2:4.
WARNING: Less than two connections to node x1:x3:x4:x3:nc_01.  This node is used by m:x1:x3:x4:x3:3.
WARNING: Less than two connections to node x1:x3:x4:x3:nc_02.  This node is used by m:x1:x3:x4:x3:4.
WARNING: Less than two connections to node x1:x3:x4:x4:nc_01.  This node is used by m:x1:x3:x4:x4:3.
WARNING: Less than two connections to node x1:x3:x4:x4:nc_02.  This node is used by m:x1:x3:x4:x4:4.
WARNING: Less than two connections to node x1:x3:x4:x5:nc_01.  This node is used by m:x1:x3:x4:x5:3.
WARNING: Less than two connections to node x1:x3:x4:x5:nc_02.  This node is used by m:x1:x3:x4:x5:4.
WARNING: Less than two connections to node x1:x3:x4:x6:nc_01.  This node is used by m:x1:x3:x4:x6:3.
WARNING: Less than two connections to node x1:x3:x4:x6:nc_02.  This node is used by m:x1:x3:x4:x6:4.
WARNING: Less than two connections to node x1:x3:x4:x7:nc_01.  This node is used by m:x1:x3:x4:x7:3.
WARNING: Less than two connections to node x1:x3:x4:x7:nc_02.  This node is used by m:x1:x3:x4:x7:4.
WARNING: Less than two connections to node x1:x3:x4:x8:nc_01.  This node is used by m:x1:x3:x4:x8:3.
WARNING: Less than two connections to node x1:x3:x4:x8:nc_02.  This node is used by m:x1:x3:x4:x8:4.
WARNING: Less than two connections to node x1:x3:x4:x9:nc_01.  This node is used by m:x1:x3:x4:x9:3.
WARNING: Less than two connections to node x1:x3:x4:x9:nc_02.  This node is used by m:x1:x3:x4:x9:4.
WARNING: Less than two connections to node x1:x3:x5:nc_01.  This node is used by m:x1:x3:x5:3.
WARNING: Less than two connections to node x1:x3:x5:nc_02.  This node is used by m:x1:x3:x5:4.
WARNING: Less than two connections to node x1:x4:x1:x1:nc_01.  This node is used by m:x1:x4:x1:x1:3.
WARNING: Less than two connections to node x1:x4:x1:x1:nc_02.  This node is used by m:x1:x4:x1:x1:4.
WARNING: Less than two connections to node x1:x4:x1:x2:nc_01.  This node is used by m:x1:x4:x1:x2:3.
WARNING: Less than two connections to node x1:x4:x1:x2:nc_02.  This node is used by m:x1:x4:x1:x2:4.
WARNING: Less than two connections to node x1:x4:x1:x3:nc_01.  This node is used by m:x1:x4:x1:x3:3.
WARNING: Less than two connections to node x1:x4:x1:x3:nc_02.  This node is used by m:x1:x4:x1:x3:4.
WARNING: Less than two connections to node x1:x4:x1:x4:nc_01.  This node is used by m:x1:x4:x1:x4:3.
WARNING: Less than two connections to node x1:x4:x1:x4:nc_02.  This node is used by m:x1:x4:x1:x4:4.
WARNING: Less than two connections to node x1:x4:x1:x5:nc_01.  This node is used by m:x1:x4:x1:x5:3.
WARNING: Less than two connections to node x1:x4:x1:x5:nc_02.  This node is used by m:x1:x4:x1:x5:4.
WARNING: Less than two connections to node x1:x4:x1:x6:nc_01.  This node is used by m:x1:x4:x1:x6:3.
WARNING: Less than two connections to node x1:x4:x1:x6:nc_02.  This node is used by m:x1:x4:x1:x6:4.
WARNING: Less than two connections to node x1:x4:x1:x7:nc_01.  This node is used by m:x1:x4:x1:x7:3.
WARNING: Less than two connections to node x1:x4:x1:x7:nc_02.  This node is used by m:x1:x4:x1:x7:4.
WARNING: Less than two connections to node x1:x4:x1:x8:nc_01.  This node is used by m:x1:x4:x1:x8:3.
WARNING: Less than two connections to node x1:x4:x1:x8:nc_02.  This node is used by m:x1:x4:x1:x8:4.
WARNING: Less than two connections to node x1:x4:x1:x9:nc_01.  This node is used by m:x1:x4:x1:x9:3.
WARNING: Less than two connections to node x1:x4:x1:x9:nc_02.  This node is used by m:x1:x4:x1:x9:4.
WARNING: Less than two connections to node x1:x4:x2:x1:nc_01.  This node is used by m:x1:x4:x2:x1:3.
WARNING: Less than two connections to node x1:x4:x2:x1:nc_02.  This node is used by m:x1:x4:x2:x1:4.
WARNING: Less than two connections to node x1:x4:x2:x2:nc_01.  This node is used by m:x1:x4:x2:x2:3.
WARNING: Less than two connections to node x1:x4:x2:x2:nc_02.  This node is used by m:x1:x4:x2:x2:4.
WARNING: Less than two connections to node x1:x4:x2:x3:nc_01.  This node is used by m:x1:x4:x2:x3:3.
WARNING: Less than two connections to node x1:x4:x2:x3:nc_02.  This node is used by m:x1:x4:x2:x3:4.
WARNING: Less than two connections to node x1:x4:x2:x4:nc_01.  This node is used by m:x1:x4:x2:x4:3.
WARNING: Less than two connections to node x1:x4:x2:x4:nc_02.  This node is used by m:x1:x4:x2:x4:4.
WARNING: Less than two connections to node x1:x4:x2:x5:nc_01.  This node is used by m:x1:x4:x2:x5:3.
WARNING: Less than two connections to node x1:x4:x2:x5:nc_02.  This node is used by m:x1:x4:x2:x5:4.
WARNING: Less than two connections to node x1:x4:x2:x6:nc_01.  This node is used by m:x1:x4:x2:x6:3.
WARNING: Less than two connections to node x1:x4:x2:x6:nc_02.  This node is used by m:x1:x4:x2:x6:4.
WARNING: Less than two connections to node x1:x4:x2:x7:nc_01.  This node is used by m:x1:x4:x2:x7:3.
WARNING: Less than two connections to node x1:x4:x2:x7:nc_02.  This node is used by m:x1:x4:x2:x7:4.
WARNING: Less than two connections to node x1:x4:x2:x8:nc_01.  This node is used by m:x1:x4:x2:x8:3.
WARNING: Less than two connections to node x1:x4:x2:x8:nc_02.  This node is used by m:x1:x4:x2:x8:4.
WARNING: Less than two connections to node x1:x4:x2:x9:nc_01.  This node is used by m:x1:x4:x2:x9:3.
WARNING: Less than two connections to node x1:x4:x2:x9:nc_02.  This node is used by m:x1:x4:x2:x9:4.
WARNING: Less than two connections to node x1:x4:x3:x1:nc_01.  This node is used by m:x1:x4:x3:x1:3.
WARNING: Less than two connections to node x1:x4:x3:x1:nc_02.  This node is used by m:x1:x4:x3:x1:4.
WARNING: Less than two connections to node x1:x4:x3:x2:nc_01.  This node is used by m:x1:x4:x3:x2:3.
WARNING: Less than two connections to node x1:x4:x3:x2:nc_02.  This node is used by m:x1:x4:x3:x2:4.
WARNING: Less than two connections to node x1:x4:x3:x3:nc_01.  This node is used by m:x1:x4:x3:x3:3.
WARNING: Less than two connections to node x1:x4:x3:x3:nc_02.  This node is used by m:x1:x4:x3:x3:4.
WARNING: Less than two connections to node x1:x4:x3:x4:nc_01.  This node is used by m:x1:x4:x3:x4:3.
WARNING: Less than two connections to node x1:x4:x3:x4:nc_02.  This node is used by m:x1:x4:x3:x4:4.
WARNING: Less than two connections to node x1:x4:x3:x5:nc_01.  This node is used by m:x1:x4:x3:x5:3.
WARNING: Less than two connections to node x1:x4:x3:x5:nc_02.  This node is used by m:x1:x4:x3:x5:4.
WARNING: Less than two connections to node x1:x4:x3:x6:nc_01.  This node is used by m:x1:x4:x3:x6:3.
WARNING: Less than two connections to node x1:x4:x3:x6:nc_02.  This node is used by m:x1:x4:x3:x6:4.
WARNING: Less than two connections to node x1:x4:x3:x7:nc_01.  This node is used by m:x1:x4:x3:x7:3.
WARNING: Less than two connections to node x1:x4:x3:x7:nc_02.  This node is used by m:x1:x4:x3:x7:4.
WARNING: Less than two connections to node x1:x4:x3:x8:nc_01.  This node is used by m:x1:x4:x3:x8:3.
WARNING: Less than two connections to node x1:x4:x3:x8:nc_02.  This node is used by m:x1:x4:x3:x8:4.
WARNING: Less than two connections to node x1:x4:x3:x9:nc_01.  This node is used by m:x1:x4:x3:x9:3.
WARNING: Less than two connections to node x1:x4:x3:x9:nc_02.  This node is used by m:x1:x4:x3:x9:4.
WARNING: Less than two connections to node x1:x4:x4:x1:nc_01.  This node is used by m:x1:x4:x4:x1:3.
WARNING: Less than two connections to node x1:x4:x4:x1:nc_02.  This node is used by m:x1:x4:x4:x1:4.
WARNING: Less than two connections to node x1:x4:x4:x2:nc_01.  This node is used by m:x1:x4:x4:x2:3.
WARNING: Less than two connections to node x1:x4:x4:x2:nc_02.  This node is used by m:x1:x4:x4:x2:4.
WARNING: Less than two connections to node x1:x4:x4:x3:nc_01.  This node is used by m:x1:x4:x4:x3:3.
WARNING: Less than two connections to node x1:x4:x4:x3:nc_02.  This node is used by m:x1:x4:x4:x3:4.
WARNING: Less than two connections to node x1:x4:x4:x4:nc_01.  This node is used by m:x1:x4:x4:x4:3.
WARNING: Less than two connections to node x1:x4:x4:x4:nc_02.  This node is used by m:x1:x4:x4:x4:4.
WARNING: Less than two connections to node x1:x4:x4:x5:nc_01.  This node is used by m:x1:x4:x4:x5:3.
WARNING: Less than two connections to node x1:x4:x4:x5:nc_02.  This node is used by m:x1:x4:x4:x5:4.
WARNING: Less than two connections to node x1:x4:x4:x6:nc_01.  This node is used by m:x1:x4:x4:x6:3.
WARNING: Less than two connections to node x1:x4:x4:x6:nc_02.  This node is used by m:x1:x4:x4:x6:4.
WARNING: Less than two connections to node x1:x4:x4:x7:nc_01.  This node is used by m:x1:x4:x4:x7:3.
WARNING: Less than two connections to node x1:x4:x4:x7:nc_02.  This node is used by m:x1:x4:x4:x7:4.
WARNING: Less than two connections to node x1:x4:x4:x8:nc_01.  This node is used by m:x1:x4:x4:x8:3.
WARNING: Less than two connections to node x1:x4:x4:x8:nc_02.  This node is used by m:x1:x4:x4:x8:4.
WARNING: Less than two connections to node x1:x4:x4:x9:nc_01.  This node is used by m:x1:x4:x4:x9:3.
WARNING: Less than two connections to node x1:x4:x4:x9:nc_02.  This node is used by m:x1:x4:x4:x9:4.
WARNING: Less than two connections to node x1:x4:x5:nc_01.  This node is used by m:x1:x4:x5:3.
WARNING: Less than two connections to node x1:x4:x5:nc_02.  This node is used by m:x1:x4:x5:4.
Warning: toxe, toxp and dtox all given and toxe != toxp + dtox; dtox ignored.
Warning: toxe, toxp and dtox all given and toxe != toxp + dtox; dtox ignored.
Early termination of direct N-R iteration.
Direct Newton iteration failed to find .op point.  (Use ".option noopiter" to skip.)
Starting Gmin stepping
Gmin = 10
Gmin = 1.07374
Gmin = 0.115292
Gmin = 0.0123794
Gmin = 0.00132923
Gmin = 0.000142725
Gmin = 1.5325e-05
vernier = 0.5
vernier = 0.25
vernier = 0.125
vernier = 0.0625
vernier = 0.03125
Gmin = 0
Trouble finding operating point....skipping operating point for Transient analysis.
