Circuit: * C:\users\leonid\Desktop\university\year3\DigitalCircuitry\lab1\LTspice\NOR_test.asc

WARNING: Node X1:NC_01 is floating.
WARNING: Node X1:NC_02 is floating.

WARNING: Less than two connections to node x1:nc_01.  This node is used by m:x1:3.
WARNING: Less than two connections to node x1:nc_02.  This node is used by m:x1:4.
Warning: toxe, toxp and dtox all given and toxe != toxp + dtox; dtox ignored.
Warning: toxe, toxp and dtox all given and toxe != toxp + dtox; dtox ignored.
Direct Newton iteration for .op point succeeded.

Date: Mon Feb 20 19:25:41 2023
Total elapsed time: 1.627 seconds.

tnom = 27
temp = 27
method = modified trap
totiter = 100422
traniter = 100406
tranpoints = 50182
accept = 50170
rejected = 12
matrix size = 26
fillins = 6
solver = Normal
Avg thread counts: 1.0/1.0/1.0/1.0
Matrix Compiler1: 2.87 KB object code size  0.6/0.4/[0.3]
Matrix Compiler2: 2.86 KB object code size  0.3/0.4/[0.3]

